**DIRAC
.WAVE FUNCTION
.ANALYZE
**HAMILTONIAN
#.NONREL
.ECP
.DFT
 PBE0
**INTEGRALS
*READIN
.UNCONTRACT
**WAVE FUNCTION
.SCF
*SCF
.CLOSED SHELL
12 6
.EVCCNV
1.0d-05
.MAXITR
100
#.OVLSEL
#.NODYNSEL
**ANALYZE
.PRIVEC
.MULPOP
*PRIVEC
.AOLAB
.VECPRI
all
all
.PRINT
 1
*MULPOP
.AOLAB
.VECPOP
all
all
.PRINT
 1
**GENERAL
.PCMOUT
*END OF

