**DIRAC
.WAVE FUNCTION
.ANALYZE
**HAMILTONIAN
#.NONREL
.ECP
**INTEGRALS
*READIN
.UNCONTRACT
**WAVE FUNCTION
#.RESOLVE
.SCF
.KR CI
*SCF
.CLOSED SHELL
2 0
.OPEN SHELL
1
3/0,6
.EVCCNV
1.0d-05
*KRCICALC
.CI PROGRAM
LUCIAREL
.CIROOTS
1u 5
.GAS SHELLS
3
0 2 / 1 0
3 5 / 0 3
5 5 / 62 47
!7 7 / 32 32
.MAX CI
100
.ANALYZ
**ANALYZE
.PRIVEC
.MULPOP
*PRIVEC
.AOLAB
.VECPRI
all
all
.PRINT
 1
*MULPOP
.AOLAB
.VECPOP
all
all
.PRINT
 1
**GENERAL
.PCMOUT
*END OF

!&GOSCIP IPRNT=5 &END
