**DIRAC
.WAVE FUNCTION
.ANALYZE
**HAMILTONIAN
#.NONREL
.ECP
**INTEGRALS
*READIN
.UNCONTRACT
**WAVE FUNCTION
.RESOLVE
.SCF
.REORDER             
1,7,2,3,4,5,6        
  
*SCF
.CLOSED SHELL
2 6
.OPEN SHELL
2
1/2,0
5/10,0
.EVCCNV
5.0d-07
.MAXITR
100
.OVLSEL
.NODYNSEL
**ANALYZE
.PRIVEC
.MULPOP
*PRIVEC
.AOLAB
.VECPRI
all
all
.PRINT
 1
*MULPOP
.AOLAB
.VECPOP
all
all
.PRINT
 1
**GENERAL
.PCMOUT
*END OF

&GOSCIP IPRNT=5 &END

!&POPANA DEGEN=1.0D-4 &END

