**DIRAC
.WAVE FUNCTION
.ANALYZE
**HAMILTONIAN
#.NONREL
.ECP
**INTEGRALS
*READIN
.UNCONTRACT
**WAVE FUNCTION
.RESOLVE
.SCF
.REORDER
1,7,2,3,4,5,6
1..3,7,8,9,10,11,12,13,4,5,6
*SCF
.CLOSED SHELL
4 6
.OPEN SHELL
1
1/0,14
.EVCCNV
5.0d-07
.OVLSEL
.NODYNSEL
**ANALYZE
.PRIVEC
.MULPOP
*PRIVEC
.AOLAB
.VECPRI
all
all
.PRINT
 1
*MULPOP
.AOLAB
.VECPOP
all
all
.PRINT
 1
**GENERAL
.PCMOUT
*END OF

&GOSCIP IPRNT=5 &END
