**DIRAC
.WAVE FUNCTION
.ANALYZE
**HAMILTONIAN
#.NONREL
.X2C
**INTEGRALS
*READIN
.UNCONTRACT
**WAVE FUNCTION
.RESOLVE
.SCF
#.REORDER
#
#1..19,26,27,28,29,30,31,32,20,21,22,23,24,25
*SCF
.CLOSED SHELL
42 38
.OPEN SHELL
1
1/0,14
.EVCCNV
5.0d-07
.MAXITR
100
#.OVLSEL
#.NODYNSEL
**ANALYZE
.PRIVEC
.MULPOP
*PRIVEC
.AOLAB
.VECPRI
all
all
.PRINT
 1
*MULPOP
.AOLAB
.VECPOP
all
all
.PRINT
 1
**GENERAL
.PCMOUT
*END OF

&GOSCIP IPRNT=5 &END
