**DIRAC
.WAVE FUNCTION
.ANALYZE
**HAMILTONIAN
#.NONREL
.X2C
**INTEGRALS
*READIN
.UNCONTRACT
**WAVE FUNCTION
.RESOLVE
.SCF
#.REORDER
#1..21,23,24,25,26,27,22
#
*SCF
.CLOSED SHELL
42 38
.OPEN SHELL
1
1/10,0
.EVCCNV
5.0d-07
.MAXITR
100
#.OVLSEL
#.NODYNSEL
**ANALYZE
.PRIVEC
.MULPOP
*PRIVEC
.AOLAB
.VECPRI
all
all
.PRINT
 1
*MULPOP
.AOLAB
.VECPOP
all
all
.PRINT
 1
**GENERAL
.PCMOUT
*END OF

&GOSCIP IPRNT=5 &END
