**DIRAC
.WAVE FUNCTION
.ANALYZE
**HAMILTONIAN
#.NONREL
.ECP
**INTEGRALS
*READIN
.UNCONTRACT
**WAVE FUNCTION
.RESOLVE
.SCF
.RELCCSD
*SCF
.CLOSED SHELL
2 6
.OPEN SHELL
1
9/10,0
.EVCCNV
1.0d-05
**ANALYZE
.PRIVEC
.MULPOP
*PRIVEC
.AOLAB
.VECPRI
all
all
.PRINT
 1
*MULPOP
.AOLAB
.VECPOP
all
all
.PRINT
 1
**GENERAL
.PCMOUT
**RELCC
.ENERGY
.TIMING
.PRINT
1
.NELEC
6 5 3 3
*CCENER
.NTOL
7
*CCSORT
*END OF

&GOSCIP IPRNT=5 &END
