**DIRAC
.WAVE FUNCTION
.ANALYZE
**HAMILTONIAN
#.NONREL
#.ECP
.X2C
**INTEGRALS
*READIN
.UNCONTRACT
**WAVE FUNCTION
.RESOLVE
.SCF
.REORDER
1..9,15,10,11,12,13,14

*SCF
.CLOSED SHELL
20 18
.OPEN SHELL
1
4/10,0
.EVCCNV
1.0d-05
.MAXITR
100
.OVLSEL
.NODYNSEL
**ANALYZE
.PRIVEC
.MULPOP
*PRIVEC
.AOLAB
.VECPRI
all
all
.PRINT
 1
*MULPOP
.AOLAB
.VECPOP
all
all
.PRINT
 1
**GENERAL
.PCMOUT
*END OF

&GOSCIP IPRNT=5 &END
