**DIRAC
.WAVE FUNCTION
.ANALYZE
**HAMILTONIAN
#.NONREL
.ECP
**INTEGRALS
*READIN
.UNCONTRACT
**WAVE FUNCTION
.RESOLVE
.SCF
*SCF
.CLOSED SHELL
4 6
.OPEN SHELL
1
4/10,0
.EVCCNV
5.0d-07
.MAXITR
100
**ANALYZE
.PRIVEC
.MULPOP
*PRIVEC
.AOLAB
.VECPRI
all
all
.PRINT
 1
*MULPOP
.AOLAB
.VECPOP
all
all
.PRINT
 1
**GENERAL
.PCMOUT
*END OF

&GOSCIP IPRNT=5 &END

!&POPANA DEGEN=1.0D-4 &END

