**DIRAC
.WAVE FUNCTION
.ANALYZE
**HAMILTONIAN
#.NONREL
#.ECP
.X2C
**INTEGRALS
*READIN
.UNCONTRACT
**WAVE FUNCTION
.RESOLVE
.SCF
*SCF
.CLOSED SHELL
18 18
.EVCCNV
3.0d-07
.MAXITR
100
**ANALYZE
.PRIVEC
.MULPOP
*PRIVEC
.AOLAB
.VECPRI
all
all
.PRINT
 1
*MULPOP
.AOLAB
.VECPOP
all
all
.PRINT
 1
**GENERAL
.PCMOUT
*END OF

&GOSCIP IPRNT=5 &END

