**DIRAC
.WAVE FUNCTION
.ANALYZE
**HAMILTONIAN
#.NONREL
.ECP
**INTEGRALS
*READIN
.UNCONTRACT
**WAVE FUNCTION
.RESOLVE
.SCF
.REORDER
4,5,7,8,10,1,11,12,13,14,2,3,6,9
1,2,3,10,11,12,13,14,15,16,4,5,6,7,8,9
*SCF
.CLOSED SHELL
12 0
.OPEN SHELL
1
1/0,6
.EVCCNV
1.0d-05
**ANALYZE
.PRIVEC
.MULPOP
*PRIVEC
.AOLAB
.VECPRI
all
all
.PRINT
 1
*MULPOP
.AOLAB
.VECPOP
all
all
.PRINT
 1
**GENERAL
.PCMOUT
*END OF

&GOSCIP IPRNT=5 &END
